11
	Energy: -238939.9070959
C         -2.72408       -0.18175        0.00019
C         -1.87031       -1.08803        0.00012
C         -1.46113        1.82708        0.00007
C         -0.73228       -1.73344        0.00012
C         -0.20578        2.09987        0.00003
C          0.52851       -1.85868       -0.00002
C          1.00962        1.67337        0.00010
C          1.77397       -1.50615       -0.00007
C          2.10734        0.99717       -0.00005
C          2.18608       -0.28259       -0.00013
H         -3.67714        0.31004        0.00022
