          92
# image no. 40 NEB iteration no.  1 Energy        -10046.660687
  S      -1.550962     -0.181398     -0.698679
  H      -1.516401     -2.447616     -2.378147
  C      -1.658567     -0.312719     -2.459322
  C      -1.614550     -1.580292     -3.022364
  H      -1.869581      1.780755     -2.885795
  C      -1.803712      0.784377     -3.304356
  C      -1.710198     -1.741691     -4.392190
  H      -1.691430     -2.730320     -4.830940
  C      -1.879387      0.622020     -4.678273
  C      -1.816624     -0.643752     -5.243134
  H      -2.024376      1.489113     -5.312825
  N      -1.898944     -0.886975     -6.621880
  H      -0.891616      0.818551     -7.155088
  C      -1.424757     -0.076708     -7.465116
  H      -2.628177     -2.073013     -8.729206
  C      -1.529494     -0.286735     -8.911948
  C      -2.187296     -1.376038     -9.426404
  H      -0.451574      1.472354     -9.394816
  C      -0.964303      0.618153     -9.797086
  C      -2.269636     -1.550766    -10.791892
  H      -2.785919     -2.404863    -11.192116
  C      -1.046162      0.445884    -11.163513
  C      -1.700478     -0.645792    -11.678115
  H      -0.609599      1.150191    -11.855549
  C      -1.795730     -0.868096    -13.107560
  H      -2.337094     -1.761980    -13.412727
  N      -1.319874     -0.083395    -13.986977
  C      -1.291333     -0.349618    -15.323437
  H      -0.696184     -2.370941    -15.114905
  H      -1.820980      1.637377    -15.844419
  C      -0.944936     -1.583711    -15.812713
  C      -1.562578      0.677420    -16.239685
  C      -0.912395     -1.784235    -17.160610
  C      -1.526583      0.476336    -17.586120
  H      -0.658637     -2.745286    -17.556446
  H      -1.778450      1.268227    -18.277357
  C      -1.179198     -0.759061    -18.077536
  N      -1.130142     -1.043738    -19.412590
  H      -0.458583      0.818089    -20.054337
  C      -0.830703     -0.182271    -20.315316
  H      -1.645335     -2.484676    -21.454621
  C      -0.928178     -0.478565    -21.731845
  H      -0.227046      1.477080    -22.315700
  C      -1.378070     -1.726408    -22.185719
  C      -0.574870      0.509824    -22.668118
  C      -1.470314     -1.971985    -23.538070
  C      -0.667088      0.264339    -24.020541
  H      -1.818205     -2.939254    -23.890005
  C      -1.117911     -0.984031    -24.474462
  H      -0.399014      1.023072    -24.751349
  C      -1.211680     -1.282066    -25.890937
  H      -1.581172     -2.282641    -26.152596
  N      -0.916160     -0.420254    -26.794546
  H      -0.223596     -2.786046    -27.944275
  C      -0.864134     -0.726460    -28.133926
  H      -1.364885      1.295236    -28.651932
  C      -0.495965     -1.992897    -28.633874
  C      -1.128435      0.314084    -29.049231
  C      -0.436673     -2.210769    -29.986986
  C      -1.097747      0.089180    -30.403303
  H      -0.135738     -3.174225    -30.385008
  C      -0.769489     -1.187062    -30.901545
  H      -1.290733      0.899580    -31.099970
  N      -0.680111     -1.462338    -32.243970
  H      -2.423958     -0.492252    -32.765174
  C      -1.513743     -1.003706    -33.094895
  H       0.517242     -2.179117    -34.401800
  C      -1.352604     -1.145621    -34.522613
  C      -0.237705     -1.775271    -35.066990
  H      -3.201657     -0.140155    -34.953095
  C      -2.331878     -0.628507    -35.375287
  C      -0.113657     -1.878083    -36.431131
  H       0.754005     -2.368836    -36.855199
  C      -2.205407     -0.734262    -36.737985
  C      -1.090917     -1.360035    -37.282189
  H      -2.959514     -0.338259    -37.408501
  C      -0.928762     -1.487779    -38.726881
  H      -0.021961     -2.002660    -39.060038
  N      -1.779127     -1.013329    -39.542531
  H      -0.718787     -3.123527    -40.848321
  C      -1.625065     -1.188943    -40.919471
  C      -1.053612     -2.310489    -41.483753
  H      -2.587562      0.662744    -41.328898
  C      -2.115120     -0.199586    -41.769716
  C      -0.950340     -2.418300    -42.854560
  H      -0.517212     -3.309362    -43.278688
  C      -1.992381     -0.295929    -43.139685
  C      -1.406476     -1.408829    -43.700082
  H      -2.365502      0.498731    -43.777568
  S      -1.224074     -1.612958    -45.440172
  H      -1.645581      1.142040     -0.630483
  H      -1.850298     -0.499045    -45.817900
